** written by FreeCAD inp file writer for CalculiX,Abaqus meshes
** highest dimension mesh elements only.

** Nodes
*Node, NSET=Nall
1, 7181.035684718, 1581.891067565, 95000
2, 7181.035684717, -1581.891067565, 95000
3, 7762.548304617, 1664.794376047, 95000
4, 7762.568960239, -1664.804911523, 95000
5, 5051.562940475, 2964.694744825, 65500
6, 5051.824522838, -2964.443307205, 65500
7, 17538.93341413, 20252.71305001, -5000
8, 17538.93341413, -20252.71305001, -5000
9, 17538.93341413, -20252.71305001, -500
10, 17538.93341413, 20252.71305001, -500
11, 17538.93341413, 20252.71305001, 0
12, 17538.93341413, -20252.71305001, 0
13, 15280.72909168, -17251.6157069, 4540
14, 15280.73007246, 17251.61702514, 4540
15, 30255.96089239, -0.0001611088424173, 4540
16, 14232.44232678, 15842.64183992, 10000
17, 14232.44232678, -15842.64183992, 10000
18, 12663.93513369, -13734.4537764, 15000
19, 12663.93513369, 13734.4537764, 15000
20, 11258.51663337, 11845.4688104, 20000
** ... 18512 like lines cut


** Face elements
*Element, TYPE=S6, ELSET=Efaces
843, 78, 1643, 72, 1647, 1648, 1649
844, 78, 3, 1643, 79, 1650, 1647
845, 1643, 1, 72, 1651, 73, 1648
846, 78, 72, 1644, 1649, 1652, 1653
847, 1644, 4, 78, 1654, 80, 1653
848, 81, 4, 1645, 83, 1655, 1656
849, 72, 2, 1644, 74, 1657, 1652
850, 1644, 2, 1645, 1657, 1658, 1659
851, 1645, 4, 1644, 1655, 1654, 1659
852, 1645, 2, 81, 1658, 82, 1656
853, 75, 1, 1646, 76, 1660, 1661
854, 1643, 3, 1646, 1650, 1662, 1663
855, 1646, 1, 1643, 1660, 1651, 1663
856, 1646, 3, 75, 1662, 77, 1661
857, 138, 1665, 1664, 1721, 1722, 1723
858, 138, 1664, 137, 1723, 1724, 157
859, 1666, 99, 1667, 1725, 1726, 1727
860, 1667, 99, 98, 1726, 118, 1728
861, 1668, 1670, 1669, 1729, 1730, 1731
862, 1670, 1672, 1671, 1732, 1733, 1734
** ... 9079 like lines cut

** Define element set Eall
*ELSET, ELSET=Eall
Efaces



***********************************************************
** Element sets for materials and FEM element type (solid, shell, beam, fluid)
*ELSET,ELSET=MaterialSolidElementGeometry2D
Efaces

***********************************************************
** constraints fixed node sets
** ConstraintFixed
*NSET,NSET=ConstraintFixed
7,
8,
40,
41,
169,
170,
171,
172,
173,
174,
175,
176,
177,
178,
179,
180,
181,
182,
183,
184,
** ... 100 like lines cut

** Physical constants for SI(mm) unit system with Kelvins
*PHYSICAL CONSTANTS, ABSOLUTE ZERO=0, STEFAN BOLTZMANN=5.670374419e-11

***********************************************************
** Materials
** see information about units at file end
** FreeCAD material name: Concrete-Generic
** MaterialSolid
*MATERIAL, NAME=MaterialSolid
*ELASTIC
32000,0.17
*DENSITY
2.4E-09
*EXPANSION, ZERO=0
0

***********************************************************
** Sections
*SHELL SECTION, ELSET=MaterialSolidElementGeometry2D, MATERIAL=MaterialSolid, OFFSET=0
25

***********************************************************
** At least one step is needed to run an CalculiX analysis of FreeCAD
*STEP, INC=2000
*STATIC
0.01,1.0,1e-05,1.0

***********************************************************
** Fixed Constraints
** ConstraintFixed
*BOUNDARY
ConstraintFixed,1
ConstraintFixed,2
ConstraintFixed,3
ConstraintFixed,4
ConstraintFixed,5
ConstraintFixed,6


***********************************************************
** Self weight Constraint
** ConstraintSelfWeight
*DLOAD
Eall,GRAV,9806.65,0,0,-1


***********************************************************
** Outputs --> frd file
*NODE FILE, OUTPUT=3d
U
*EL FILE
S, E
** outputs --> dat file
** reaction forces for Constraint fixed
*NODE PRINT, NSET=ConstraintFixed, TOTALS=ONLY
RF

*OUTPUT, FREQUENCY=1
***********************************************************
*END STEP

***********************************************************
** CalculiX Input file
**   written by    --> FreeCAD 1.1.1
**   written on    --> Wed Aug 26 18:29:53 2026
**   file name     --> Nem sei mais v3.FCStd
**   analysis name --> Analysis
**
**
***********************************************************
**  About units:
**  See ccx manual, ccx does not know about any unit.
**  Golden rule: The user must make sure that the numbers they provide have consistent units.
**  The user is the FreeCAD calculix writer module ;-)
**
**  The unit system which is used at Guido Dhondt's company: mm, N, s, K
**  Since Length and Mass are connected by Force, if Length is mm the Mass is in t to get N
**  The following units are used to write to inp file:
**
**  Length: mm (this includes the mesh geometry)
**  Mass: t
**  TimeSpan: s
**  Temperature: K
**
**  This leads to:
**  Force: N
**  Pressure: N/mm^2 == MPa (Young's Modulus has unit Pressure)
**  Density: t/mm^3
**  Gravity: mm/s^2
**  Thermal conductivity: t*mm/K/s^3 == as W/m/K == kW/mm/K
**  Specific Heat: mm^2/s^2/K = J/kg/K == kJ/t/K
**
